Program Version,EnergyPlus, Version 9.5.0-de239b2e5f, YMD=2023.02.17 16:13,
   ************* EnergyPlus Warmup Error Summary. During Warmup: 0 Warning; 0 Severe Errors.
   ************* EnergyPlus Sizing Error Summary. During Sizing: 0 Warning; 0 Severe Errors.
   ************* EnergyPlus Completed Successfully-- 0 Warning; 0 Severe Errors; Elapsed Time=00hr 00min  0.11sec
