Program Version,EnergyPlus, Version 9.5.0-de239b2e5f, YMD=2022.11.01 22:08,
   ** Warning ** Weather file location will be used rather than entered (IDF) Location object.
   **   ~~~   ** ..Location object=DENVER STAPLETON INTL ARPT CO USA WMO=724690
   **   ~~~   ** ..Weather File Location=Chicago Ohare Intl Ap IL USA TMY3 WMO#=725300
   **   ~~~   ** ..due to location differences, Latitude difference=[2.21] degrees, Longitude difference=[16.95] degrees.
   **   ~~~   ** ..Time Zone difference=[1.0] hour(s), Elevation difference=[87.52] percent, [1410.00] meters.
   ** Warning ** SetUpDesignDay: Entered DesignDay Barometric Pressure=83411 differs by more than 10% from Standard Barometric Pressure=98934.
   **   ~~~   ** ...occurs in DesignDay=DENVER STAPLETON INTL ARPT ANN CLG 1% CONDNS DB=>MWB, Standard Pressure (based on elevation) will be used.
   ** Warning ** CalculateZoneVolume: 1 zone is not fully enclosed. For more details use:  Output:Diagnostics,DisplayExtrawarnings; 
   ** Warning ** SetUpDesignDay: Entered DesignDay Barometric Pressure=83411 differs by more than 10% from Standard Barometric Pressure=98934.
   **   ~~~   ** ...occurs in DesignDay=DENVER STAPLETON INTL ARPT ANN HTG 99% CONDNS DB, Standard Pressure (based on elevation) will be used.
   ************* Testing Individual Branch Integrity
   ************* All Branches passed integrity testing
   ************* Testing Individual Supply Air Path Integrity
   ************* All Supply Air Paths passed integrity testing
   ************* Testing Individual Return Air Path Integrity
   ************* All Return Air Paths passed integrity testing
   ************* No node connection errors were found.
   ************* Beginning Simulation
   ************* Simulation Error Summary *************
   ************* EnergyPlus Warmup Error Summary. During Warmup: 0 Warning; 0 Severe Errors.
   ************* EnergyPlus Sizing Error Summary. During Sizing: 0 Warning; 0 Severe Errors.
   ************* EnergyPlus Completed Successfully-- 4 Warning; 0 Severe Errors; Elapsed Time=00hr 00min  0.32sec
