Program Version,EnergyPlus, Version 9.5.0-de239b2e5f, YMD=2022.10.12 15:39,
Var Type (reported time step),Var Report Type,Variable Name [Units]
Zone,Meter,EnergyTransfer:Facility [J]
Zone,Meter,EnergyTransfer:Building [J]
Zone,Meter,EnergyTransfer:Zone:ZONE ONE [J]
Zone,Meter,Heating:EnergyTransfer [J]
Zone,Meter,Heating:EnergyTransfer:Zone:ZONE ONE [J]
Zone,Meter,General:Heating:EnergyTransfer [J]
Zone,Meter,Cooling:EnergyTransfer [J]
Zone,Meter,Cooling:EnergyTransfer:Zone:ZONE ONE [J]
Zone,Meter,General:Cooling:EnergyTransfer [J]
Zone,Meter,Carbon Equivalent:Facility [kg]
Zone,Meter,CarbonEquivalentEmissions:Carbon Equivalent [kg]
